Circuit: * C:\Users\pourl\Desktop\BSPD\BSPD.asc

WARNING: Node N002 is floating.

WARNING: Less than two connections to node NC_02.  This node is used by S:U1:1.
Direct Newton iteration failed to find .op point.  (Use ".option noopiter" to skip.)
Starting Gmin stepping
Gmin = 10
Gmin = 1.07374
Gmin = 0.115292
Gmin = 0.0123794
Gmin = 0.00132923
Gmin = 0.000142725
Gmin = 1.5325e-005
Gmin = 1.6455e-006
Gmin = 1.76685e-007
Gmin = 1.89714e-008
Gmin = 2.03704e-009
Gmin = 2.18725e-010
Gmin = 2.34854e-011
Gmin = 2.52173e-012
Gmin = 2.70769e-013
Gmin = 0
Gmin stepping succeeded in finding the operating point.

Heightened Def Con from 0.498778 to 0.498778
Heightened Def Con from 5.02956 to 5.02956
Heightened Def Con from 6 to 6

Date: Tue Feb 16 14:21:14 2021
Total elapsed time: 1.108 seconds.

tnom = 27
temp = 27
method = modified trap
totiter = 23532
traniter = 22909
tranpoints = 5435
accept = 4281
rejected = 1157
matrix size = 67
fillins = 33
solver = Normal
Thread vector: 26.5/19.1[4] 5.3/7.5[1] 3.9/6.6[1] 0.2/4.8[1]  2592/500
Matrix Compiler1: 5.51 KB object code size  2.9/2.7/[0.6]
Matrix Compiler2: 5.54 KB object code size  1.3/3.4/[0.3]

